/*--------------------------------*- C++ -*----------------------------------*\
| =========                 |                                                 |
| \\      /  F ield         | OpenFOAM: The Open Source CFD Toolbox           |
|  \\    /   O peration     | Version:  1.6                                   |
|   \\  /    A nd           | Web:      www.OpenFOAM.org                      |
|    \\/     M anipulation  |                                                 |
\*---------------------------------------------------------------------------*/
FoamFile
{
    version     2.0;
    format      ascii;
    class       dictionary;
    location    "system";
    object      fvSolution;
}
// * * * * * * * * * * * * * * * * * * * * * * * * * * * * * * * * * * * * * //


solvers
{
    "rho.*"
    {
        solver          PCG;
        preconditioner  DIC;
        tolerance       0;
        relTol          0;
    }

    p_rgh
    {
        solver          PCG;
        preconditioner  DIC;
        tolerance       1e-8;
        relTol          0.01;
    }

    p_rghFinal
    {
        $p_rgh;
        relTol          0;
    }

    "(U|h|e|k|epsilon|R)"
    {
        solver          PBiCGStab;
        preconditioner  DILU;
        tolerance       1e-6;
        relTol          0.1;
    }

    "(U|h|e|k|epsilon|R)Final"
    {
        $U;
        relTol          0;
    }
}

PIMPLE
{
    momentumPredictor yes;
    nOuterCorrectors 4;
    nCorrectors     2;
    nNonOrthogonalCorrectors 0;
    pRefCell        0;
    pRefValue       0;
    
    residualCotrol
    {
        p
        {
            relTol          0;
            tolerance       1e-08;
        }

        U
        {
            relTol          0;
            tolerance       1e-08;
        }
    }
}
relaxationFactors
{
    fields
    {
	    p       0.9;
    }
    equations
    {
            "U.*"       0.9;
    }
}

// ************************************************************************* //
