/*--------------------------------*- C++ -*----------------------------------*\
| =========                 |                                                 |
| \\      /  F ield         | OpenFOAM: The Open Source CFD Toolbox           |
|  \\    /   O peration     | Version:  1.6                                   |
|   \\  /    A nd           | Web:      www.OpenFOAM.org                      |
|    \\/     M anipulation  |                                                 |
\*---------------------------------------------------------------------------*/
FoamFile
{
    version     2.0;
    format      ascii;
    class       dictionary;
    location    "system";
    object      fvSchemes;
}
// * * * * * * * * * * * * * * * * * * * * * * * * * * * * * * * * * * * * * //

ddtSchemes
{
    default         Euler;
}

gradSchemes
{
    default         Gauss linear;
    grad(p)         Gauss linear;
    grad(U)         Gauss linear;
}

divSchemes
{
    default         Gauss linear;
    div(phi,U)      Gauss linearUpwind grad(U);
    div(phi,k)      Gauss linearUpwind grad(U);
    div(phi,h)      Gauss linearUpwind grad(U);
    div(phi,epsilon) Gauss linearUpwind grad(U);
    div(phi,R)      Gauss linearUpwind grad(U); 
    div(R)          Gauss linearUpwind grad(U);
    div(phi,nuTilda) Gauss linearUpwind grad(U);
    div((nuEff*dev(grad(U).T()))) Gauss linearUpwind grad(U);
    div((viscousTerm*dev(grad(U).T()))) Gauss linearUpwind grad(U);
    div((nu*dev(grad(U).T()))) Gauss linearUpwind grad(U);
    div(phi,T)      Gauss linearUpwind grad(U); //
}

laplacianSchemes
{
    default         Gauss linear corrected;
    laplacian(nuEff,U) Gauss linear corrected;
    laplacian(viscousTerm,U) Gauss linear corrected;
    laplacian(nu,U) Gauss linear corrected;
    laplacian((1|A(U)),p) Gauss linear corrected;
    laplacian((voidfraction2|A(U)),p) Gauss linear corrected;
    laplacian(DkEff,k) Gauss linear corrected;
    laplacian(DepsilonEff,epsilon) Gauss linear corrected;
    laplacian(DREff,R) Gauss linear corrected;
    laplacian(DnuTildaEff,nuTilda) Gauss linear corrected;
    laplacian((DT*voidfraction),T) Gauss linear corrected;    
}

interpolationSchemes
{
    default         linear;
    interpolate(U)  linear;
}

snGradSchemes
{
    default         corrected;
}

fluxRequired
{
    default         no;
    p               ;
}


// ************************************************************************* //
